8

C                  0.31116892   -0.79801476   -0.48224218
C                 -0.93252966   -1.18355627    0.18326013
C                 -0.19070672   -2.23710446   -0.64724259
O                 -0.07870634   -3.40111701   -1.11209696
C                  1.36651919    0.27944151   -0.79352531
C                  2.19002726    1.11945550   -1.03667608
H                 -1.76329106   -0.91984347    0.80386967
H                  2.92366590    1.86758329   -1.25336455
